Version 4
SHEET 1 1816 984
WIRE 288 -192 -208 -192
WIRE 592 -192 288 -192
WIRE 288 -128 288 -192
WIRE 592 -128 592 -192
WIRE 16 -16 0 -16
WIRE 288 -16 288 -48
WIRE 288 -16 80 -16
WIRE 592 -16 592 -48
WIRE 592 -16 496 -16
WIRE 704 -16 592 -16
WIRE 864 -16 768 -16
WIRE 896 -16 864 -16
WIRE 944 -16 896 -16
WIRE 592 16 592 -16
WIRE 288 32 288 -16
WIRE -208 96 -208 -192
WIRE -192 96 -208 96
WIRE -96 96 -128 96
WIRE 0 96 0 -16
WIRE 0 96 -96 96
WIRE 16 96 0 96
WIRE 128 96 80 96
WIRE 544 96 448 96
WIRE 864 128 864 -16
WIRE 864 128 704 128
WIRE 944 144 944 -16
WIRE 704 160 704 128
WIRE 0 176 0 96
WIRE 128 176 0 176
WIRE 496 176 496 -16
WIRE 496 176 448 176
WIRE -208 192 -208 96
WIRE -208 208 -208 192
WIRE 80 272 32 272
WIRE 128 272 80 272
WIRE 704 272 704 240
WIRE 704 272 448 272
WIRE 32 288 32 272
WIRE 704 304 704 272
WIRE 864 304 864 128
WIRE 32 416 32 368
WIRE 80 416 80 272
WIRE -208 512 -208 288
WIRE -96 512 -96 96
WIRE -96 512 -208 512
WIRE 32 512 32 480
WIRE 32 512 -96 512
WIRE 80 512 80 480
WIRE 80 512 32 512
WIRE 288 512 288 336
WIRE 288 512 80 512
WIRE 592 512 592 112
WIRE 592 512 288 512
WIRE 704 512 704 384
WIRE 704 512 592 512
WIRE 864 512 864 368
WIRE 864 512 704 512
WIRE 944 512 944 224
WIRE 944 512 864 512
WIRE 288 576 288 512
FLAG 288 576 0
FLAG -208 192 Vin
FLAG 896 -16 Vout
SYMBOL PowerProducts\\LTC3873 288 176 R0
SYMATTR InstName U1
SYMBOL voltage -208 192 R0
WINDOW 123 0 0 Left 2
WINDOW 39 0 0 Left 2
SYMATTR InstName Vin
SYMATTR Value 30
SYMBOL res 304 -32 R180
WINDOW 0 36 76 Left 2
WINDOW 3 36 40 Left 2
SYMATTR InstName R1
SYMATTR Value 4k
SYMBOL cap 80 -32 R90
WINDOW 0 0 32 VBottom 2
WINDOW 3 32 32 VTop 2
SYMATTR InstName C1
SYMATTR Value 4.7µ
SYMBOL nmos 544 16 R0
SYMATTR InstName M1
SYMATTR Value BSC060N10NS3
SYMBOL ind 576 -144 R0
SYMATTR InstName L1
SYMATTR Value 40µ
SYMBOL schottky 704 0 R270
WINDOW 0 32 32 VTop 2
WINDOW 3 0 32 VBottom 2
SYMATTR InstName D1
SYMATTR Value MBR20100CT
SYMATTR Description Diode
SYMATTR Type diode
SYMBOL cap 848 304 R0
SYMATTR InstName C2
SYMATTR Value 40µ
SYMBOL res 688 288 R0
SYMATTR InstName R2
SYMATTR Value 1k
SYMBOL res 688 144 R0
SYMATTR InstName R3
SYMATTR Value 51.1483k
SYMBOL res 48 384 R180
WINDOW 0 36 76 Left 2
WINDOW 3 36 40 Left 2
SYMATTR InstName R4
SYMATTR Value 20k
SYMBOL cap 48 416 M0
SYMATTR InstName C3
SYMATTR Value 18n
SYMBOL cap 64 416 R0
SYMATTR InstName C4
SYMATTR Value 47p
SYMBOL cap 16 112 R270
WINDOW 0 32 32 VTop 2
WINDOW 3 0 32 VBottom 2
SYMATTR InstName C5
SYMATTR Value 1n
SYMBOL res 928 128 R0
SYMATTR InstName Rload
SYMATTR Value 12.5156
SYMBOL cap -192 112 R270
WINDOW 0 32 32 VTop 2
WINDOW 3 0 32 VBottom 2
SYMATTR InstName C6
SYMATTR Value 10p
TEXT -256 600 Left 2 !.tran 0 100m 0 steady nodiscard
TEXT -144 680 Left 2 !.option reltol=0.01 trtol=8
