Version 4
SHEET 1 1472 1124
WIRE 240 96 16 96
WIRE 608 96 240 96
WIRE 656 96 608 96
WIRE 816 96 752 96
WIRE 1040 96 816 96
WIRE 1168 96 1040 96
WIRE 1328 96 1168 96
WIRE 1040 144 1040 96
WIRE 1168 144 1168 96
WIRE 608 176 608 96
WIRE 656 176 608 176
WIRE 336 208 336 160
WIRE 512 208 512 160
WIRE 656 208 656 176
WIRE 736 208 736 144
WIRE 816 208 816 96
WIRE 1168 256 1168 224
WIRE 1168 256 912 256
WIRE 288 272 208 272
WIRE 1168 304 1168 256
WIRE 16 320 16 96
WIRE 112 320 16 320
WIRE 288 320 192 320
WIRE 1120 320 912 320
WIRE 240 352 240 96
WIRE 288 352 240 352
WIRE 1168 400 912 400
WIRE 1040 448 1040 224
WIRE 1040 448 912 448
WIRE 288 480 256 480
WIRE 1328 496 1328 96
WIRE 16 512 16 320
WIRE 1040 544 1040 528
WIRE 1040 544 912 544
WIRE 1040 560 1040 544
WIRE 288 592 144 592
WIRE 208 640 208 272
WIRE 288 640 208 640
WIRE 1040 640 912 640
WIRE 1072 640 1040 640
WIRE 1168 640 1168 400
WIRE 1168 640 1152 640
WIRE 1168 656 1168 640
WIRE 16 672 16 592
WIRE 208 672 208 640
WIRE 208 672 16 672
WIRE 208 688 208 672
WIRE 288 688 208 688
WIRE 288 736 128 736
WIRE 128 752 128 736
WIRE 960 752 912 752
WIRE 1040 752 960 752
WIRE 1168 752 1168 720
WIRE 1168 752 1120 752
WIRE 288 784 208 784
WIRE 960 784 960 752
WIRE 208 800 208 784
WIRE 128 880 128 816
WIRE 176 880 128 880
WIRE 208 880 208 864
WIRE 208 880 176 880
WIRE 592 880 592 864
WIRE 592 880 496 880
WIRE 656 880 656 864
WIRE 656 880 624 880
WIRE 688 880 656 880
WIRE 256 896 256 480
WIRE 368 896 368 864
WIRE 368 896 256 896
WIRE 816 896 816 864
WIRE 816 896 368 896
WIRE 960 896 960 864
WIRE 960 896 816 896
WIRE 624 912 624 880
WIRE 176 928 176 880
WIRE 688 928 688 880
WIRE 816 928 816 896
WIRE 480 944 480 864
WIRE 496 944 496 880
WIRE 624 1024 624 992
WIRE 656 1024 624 1024
WIRE 688 1024 688 992
WIRE 688 1024 656 1024
WIRE 16 1072 16 672
WIRE 592 1072 16 1072
WIRE 656 1072 656 1024
WIRE 656 1072 592 1072
WIRE 736 1072 736 864
WIRE 736 1072 656 1072
WIRE 816 1072 816 992
WIRE 816 1072 736 1072
WIRE 1168 1072 1168 752
WIRE 1168 1072 816 1072
WIRE 1328 1072 1328 576
WIRE 1328 1072 1168 1072
WIRE 592 1104 592 1072
FLAG 176 928 0
FLAG 592 1104 0
SYMBOL pmos 656 144 R270
WINDOW 0 114 -24 VRight 2
WINDOW 3 79 -22 VRight 2
SYMATTR InstName M1
SYMATTR Value SUD50P08-25L_PS_RC
SYMATTR Prefix X
SYMBOL voltage 16 496 R0
WINDOW 123 0 0 Left 2
WINDOW 39 0 0 Left 2
SYMATTR InstName V1
SYMATTR Value 60
SYMBOL PowerProducts\\LTC4000 336 512 R0
SYMATTR InstName U1
SYMBOL pmos 1120 400 M180
SYMATTR InstName M2
SYMATTR Value SUD50P08-25L_PS_RC
SYMATTR Prefix X
SYMBOL res 96 336 R270
WINDOW 0 32 56 VTop 2
WINDOW 3 0 56 VBottom 2
SYMATTR InstName R1
SYMATTR Value 10m
SYMATTR SpiceLine tol=1
SYMBOL cap 112 752 R0
SYMATTR InstName C1
SYMBOL cap 192 800 R0
SYMATTR InstName C2
SYMBOL res 640 896 M0
SYMATTR InstName R2
SYMATTR Value 100k
SYMBOL cap 672 928 R0
SYMATTR InstName C3
SYMATTR Value 1µ
SYMBOL cap 800 928 R0
SYMATTR InstName C4
SYMATTR Value 1µ
SYMBOL res 944 768 R0
SYMATTR InstName R3
SYMATTR Value 10k
SYMATTR SpiceLine tol=1
SYMBOL cap 1152 656 R0
SYMATTR InstName CBAT
SYMATTR Value 1
SYMBOL res 1136 736 R90
WINDOW 0 0 56 VBottom 2
WINDOW 3 32 56 VTop 2
SYMATTR InstName R4
SYMATTR Value 10k
SYMBOL res 1056 656 R270
WINDOW 0 32 56 VTop 2
WINDOW 3 0 56 VBottom 2
SYMATTR InstName R5
SYMATTR Value 1k
SYMBOL res 1056 544 M0
SYMATTR InstName R6
SYMATTR Value 46.5k
SYMBOL res 1056 432 M0
SYMATTR InstName R7
SYMATTR Value 1k
SYMATTR SpiceLine tol=1
SYMBOL res 1056 128 M0
SYMATTR InstName R8
SYMATTR Value 48.3k
SYMATTR SpiceLine tol=1
SYMBOL res 1152 128 R0
SYMATTR InstName R9
SYMATTR Value 40m
SYMATTR SpiceLine tol=1
SYMBOL res 1312 480 R0
SYMATTR InstName Rload
SYMATTR Value 60
SYMATTR SpiceLine tol=1
TEXT 16 48 Left 2 !.tran 100u
TEXT 16 8 Left 2 !.inc "sub\\sud50p08-25l_ps_rc.txt"
TEXT 432 928 Left 2 ;DNI
TEXT 504 928 Left 2 ;DNI
TEXT 344 184 Left 2 ;DNI
TEXT 520 184 Left 2 ;DNI
TEXT 112 616 Left 2 ;To PIC
